Circuit: * C:\Users\79937\Documents\GitHub\STM\LTSpice\adp5070.asc

Direct Newton iteration failed to find .op point.  (Use ".option noopiter" to skip.)
Starting Gmin stepping
Gmin = 10
Gmin = 1.07374
Gmin = 0.115292
Gmin = 0.0123794
Gmin = 0.00132923
vernier = 0.5
vernier = 0.25
vernier = 0.125
vernier = 0.0625
Gmin = 0.000945229
vernier = 0.0833333
Gmin = 0.000789034
vernier = 0.111111
vernier = 0.148148
Gmin = 0.00058798
vernier = 0.197531
vernier = 0.263374
Gmin = 0.000370411
vernier = 0.351165
Gmin = 0.000176802
vernier = 0.46822
vernier = 0.624294
Gmin = 5.41425e-005
vernier = 0.832392
vernier = 1
Gmin = 9.01695e-006
vernier = 0.5
Gmin = 2.56193e-006
vernier = 0.666667
vernier = 0.888888
Gmin = 4.55287e-007
vernier = 1
Gmin = 5.11335e-008
Gmin = 5.49041e-009
Gmin = 5.89529e-010
Gmin = 6.33002e-011
Gmin = 6.7968e-012
Gmin = 7.29801e-013
Gmin = 0
Gmin stepping succeeded in finding the operating point.

Ignoring empty pin current: Ix(u1:9)
Ignoring empty pin current: Ix(u1:9)

Date: Thu Nov 04 15:11:01 2021
Total elapsed time: 13.249 seconds.

tnom = 27
temp = 27
method = modified trap
totiter = 815262
traniter = 814110
tranpoints = 313121
accept = 216293
rejected = 96828
matrix size = 86
fillins = 13
solver = Normal
Thread vector: 39.7/9.9[3] 4.4/5.1[1] 1.7/3.6[1] 0.2/3.4[1]  2592/500
Matrix Compiler1: 3.18 KB object code size  1.2/0.6/[0.3]
Matrix Compiler2: 5.32 KB object code size  0.7/1.4/[0.4]

